Version 4
SHEET 1 1200 800
WIRE 64 256 224 256
WIRE 320 256 480 256
WIRE 384 256 384 352
WIRE 544 256 544 352
WIRE 96 352 544 352
SYMBOL voltage 96 256 R0
SYMATTR InstName VIN
SYMATTR Value SINE(0 3 1k)
SYMBOL res 224 256 R0
SYMATTR InstName RSRC
SYMATTR Value 1k
SYMBOL res 384 256 R90
SYMATTR InstName RLOAD
SYMATTR Value 10k
SYMBOL diode 480 256 R0
SYMATTR InstName DCLIP
SYMATTR Value DCLAW
FLAG 64 256 in
IOPIN 64 256 In
FLAG 448 256 clip
IOPIN 448 256 Out
FLAG 96 352 0
FLAG 384 352 0
FLAG 544 352 0
TEXT 64 464 Left 1 !.model DCLAW D(Is=2n Rs=0.25 N=1.8 Cjo=2p M=0.33 Eg=1.11)
TEXT 64 496 Left 1 !.options plotwinsize=0
TEXT 64 528 Left 1 !.tran 0 8m 0 1u
TEXT 64 560 Left 1 !.meas TRAN clip_max MAX V(clip) FROM=2m TO=8m
TEXT 64 592 Left 1 !.meas TRAN clip_min MIN V(clip) FROM=2m TO=8m
TEXT 64 624 Left 1 !.meas TRAN clip_avg AVG V(clip) FROM=2m TO=8m
