Version 4
SHEET 1 1200 800
SYMBOL voltage 96 144 R0
SYMATTR InstName VIN1
SYMATTR Value PULSE(0 0.5 0 1u 1u 5m 10m)
SYMBOL voltage 96 288 R0
SYMATTR InstName VIN2
SYMATTR Value PULSE(0 0.25 1m 1u 1u 5m 10m)
SYMBOL voltage 320 32 R0
SYMATTR InstName VCC
SYMATTR Value 5
SYMBOL voltage 320 384 R0
SYMATTR InstName VEE
SYMATTR Value -5
SYMBOL res 256 176 R90
SYMATTR InstName R1
SYMATTR Value 10k
SYMBOL res 256 320 R90
SYMATTR InstName R2
SYMATTR Value 20k
SYMBOL res 544 128 R90
SYMATTR InstName RF
SYMATTR Value 20k
SYMBOL opamp2 416 208 R0
SYMATTR InstName XU1
SYMATTR Value CLAW_IDEAL_OPAMP
SYMBOL res 672 240 R90
SYMATTR InstName RL
SYMATTR Value 10k
FLAG 96 160 in1
FLAG 96 240 0
FLAG 96 304 in2
FLAG 96 384 0
FLAG 320 48 vcc
FLAG 320 128 0
FLAG 320 400 vee
FLAG 320 480 0
FLAG 256 176 in1
FLAG 320 176 sum
FLAG 256 320 in2
FLAG 320 320 sum
FLAG 544 128 out
FLAG 608 128 sum
FLAG 416 240 0
FLAG 416 304 sum
FLAG 464 208 vcc
FLAG 464 336 vee
FLAG 512 272 out
FLAG 672 240 out
FLAG 736 240 0
TEXT 64 520 Left 2 !.include ../../lib/claw_opamps.lib
TEXT 64 552 Left 2 !.tran 0 4m 0 5u
TEXT 64 584 Left 2 !.meas TRAN vout_2ms FIND V(out) AT=2m
TEXT 64 616 Left 2 !.meas TRAN vout_3ms FIND V(out) AT=3m
