Version 4
SHEET 1 1200 800
WIRE 64 176 160 176
WIRE 160 176 160 256
WIRE 160 256 224 256
WIRE 64 336 160 336
WIRE 160 336 160 352
WIRE 160 352 224 352
WIRE 320 256 352 256
WIRE 320 352 352 352
WIRE 352 256 352 304
WIRE 352 352 352 304
WIRE 352 304 416 304
WIRE 416 304 416 128
WIRE 416 128 464 128
WIRE 560 128 560 272
WIRE 560 272 704 272
SYMBOL voltage 96 176 R0
SYMATTR InstName VIN1
SYMATTR Value PULSE(0 0.5 0 1u 1u 5m 10m)
SYMBOL voltage 96 336 R0
SYMATTR InstName VIN2
SYMATTR Value PULSE(0 0.25 1m 1u 1u 5m 10m)
SYMBOL voltage 288 48 R0
SYMATTR InstName VCC
SYMATTR Value 5
SYMBOL voltage 288 400 R0
SYMATTR InstName VEE
SYMATTR Value -5
SYMBOL res 224 256 R0
SYMATTR InstName R1
SYMATTR Value 10k
SYMBOL res 224 352 R0
SYMATTR InstName R2
SYMATTR Value 20k
SYMBOL res 464 128 R0
SYMATTR InstName RF
SYMATTR Value 20k
SYMBOL opamp2 416 208 R0
SYMATTR InstName XU1
SYMATTR Value CLAW_IDEAL_OPAMP
SYMBOL res 640 272 R90
SYMATTR InstName RL
SYMATTR Value 10k
FLAG 64 176 in1
IOPIN 64 176 In
FLAG 64 336 in2
IOPIN 64 336 In
FLAG 704 272 out
IOPIN 704 272 Out
FLAG 96 272 0
FLAG 96 432 0
FLAG 416 240 0
FLAG 640 368 0
FLAG 288 144 0
FLAG 288 496 0
TEXT 64 608 Left 1 !.include ../../lib/claw_opamps.lib
TEXT 64 640 Left 1 !.tran 0 4m 0 5u
TEXT 64 672 Left 1 !.meas TRAN vout_2ms FIND V(out) AT=2m
TEXT 64 704 Left 1 !.meas TRAN vout_3ms FIND V(out) AT=3m
