Version 4
SHEET 1 1200 800
WIRE 64 224 416 224
WIRE 560 256 592 256
WIRE 656 256 784 256
WIRE 720 256 720 352
WIRE 656 256 688 256
WIRE 688 256 688 336
WIRE 688 336 416 336
WIRE 416 336 416 288
WIRE 288 48 464 48
WIRE 464 48 464 192
WIRE 288 368 464 368
WIRE 464 368 464 320
SYMBOL voltage 96 224 R0
SYMATTR InstName VIN
SYMATTR Value SINE(0 0.75 1k)
SYMBOL voltage 288 48 R0
SYMATTR InstName VCC
SYMATTR Value 5
SYMBOL voltage 288 368 R0
SYMATTR InstName VEE
SYMATTR Value -5
SYMBOL opamp2 416 192 R0
SYMATTR InstName XU1
SYMATTR Value CLAW_IDEAL_OPAMP
SYMBOL diode 592 256 R0
SYMATTR InstName D1
SYMATTR Value DCLAW
SYMBOL res 720 256 R90
SYMATTR InstName RLOAD
SYMATTR Value 10k
FLAG 64 224 in
IOPIN 64 224 In
FLAG 784 256 rect
IOPIN 784 256 Out
FLAG 96 320 0
FLAG 720 352 0
FLAG 288 144 0
FLAG 288 464 0
TEXT 64 576 Left 1 !.include ../../lib/claw_opamps.lib
TEXT 64 608 Left 1 !.model DCLAW D(Is=2n Rs=0.2 N=1.8 Cjo=2p)
TEXT 64 640 Left 1 !.tran 0 5m 0 1u
TEXT 64 672 Left 1 !.meas TRAN vrect_max MAX V(rect) FROM=1m TO=5m
TEXT 64 704 Left 1 !.meas TRAN vrect_min MIN V(rect) FROM=1m TO=5m
TEXT 64 736 Left 1 !.meas TRAN vrect_avg AVG V(rect) FROM=1m TO=5m
