Version 4
SHEET 1 1200 800
SYMBOL voltage 96 160 R0
SYMATTR InstName VPLUS
SYMATTR Value PULSE(0 0.8 0 1u 1u 5m 10m)
SYMBOL voltage 96 320 R0
SYMATTR InstName VMINUS
SYMATTR Value PULSE(0 0.3 1m 1u 1u 5m 10m)
SYMBOL voltage 320 32 R0
SYMATTR InstName VCC
SYMATTR Value 5
SYMBOL voltage 320 416 R0
SYMATTR InstName VEE
SYMATTR Value -5
SYMBOL res 256 320 R90
SYMATTR InstName RINM
SYMATTR Value 10k
SYMBOL res 544 128 R90
SYMATTR InstName RFM
SYMATTR Value 20k
SYMBOL res 256 192 R90
SYMATTR InstName RINP
SYMATTR Value 10k
SYMBOL res 368 256 R90
SYMATTR InstName RGP
SYMATTR Value 20k
SYMBOL opamp2 448 224 R0
SYMATTR InstName XU1
SYMATTR Value CLAW_IDEAL_OPAMP
SYMBOL res 704 256 R90
SYMATTR InstName RL
SYMATTR Value 10k
FLAG 96 176 plus
FLAG 96 256 0
FLAG 96 336 minus
FLAG 96 416 0
FLAG 320 48 vcc
FLAG 320 128 0
FLAG 320 432 vee
FLAG 320 512 0
FLAG 256 320 minus
FLAG 320 320 inv
FLAG 544 128 out
FLAG 608 128 inv
FLAG 256 192 plus
FLAG 320 192 noninv
FLAG 368 256 noninv
FLAG 432 256 0
FLAG 448 256 noninv
FLAG 448 320 inv
FLAG 496 224 vcc
FLAG 496 352 vee
FLAG 544 288 out
FLAG 704 256 out
FLAG 768 256 0
TEXT 64 552 Left 2 !.include ../../lib/claw_opamps.lib
TEXT 64 584 Left 2 !.tran 0 4m 0 5u
TEXT 64 616 Left 2 !.meas TRAN vout_2ms FIND V(out) AT=2m
TEXT 64 648 Left 2 !.meas TRAN vout_3ms FIND V(out) AT=3m
