Version 4
SHEET 1 1200 800
WIRE 64 192 160 192
WIRE 160 192 160 256
WIRE 160 256 224 256
WIRE 320 256 448 256
WIRE 384 256 384 352
WIRE 64 352 160 352
WIRE 160 352 160 320
WIRE 160 320 224 320
WIRE 320 320 448 320
WIRE 448 320 448 144
WIRE 448 144 496 144
WIRE 592 144 592 288
WIRE 592 288 768 288
SYMBOL voltage 96 192 R0
SYMATTR InstName VPLUS
SYMATTR Value PULSE(0 0.8 0 1u 1u 5m 10m)
SYMBOL voltage 96 352 R0
SYMATTR InstName VMINUS
SYMATTR Value PULSE(0 0.3 1m 1u 1u 5m 10m)
SYMBOL voltage 288 48 R0
SYMATTR InstName VCC
SYMATTR Value 5
SYMBOL voltage 288 416 R0
SYMATTR InstName VEE
SYMATTR Value -5
SYMBOL res 224 320 R0
SYMATTR InstName RINM
SYMATTR Value 10k
SYMBOL res 496 144 R0
SYMATTR InstName RFM
SYMATTR Value 20k
SYMBOL res 224 256 R0
SYMATTR InstName RINP
SYMATTR Value 10k
SYMBOL res 384 256 R90
SYMATTR InstName RGP
SYMATTR Value 20k
SYMBOL opamp2 448 224 R0
SYMATTR InstName XU1
SYMATTR Value CLAW_IDEAL_OPAMP
SYMBOL res 704 288 R90
SYMATTR InstName RL
SYMATTR Value 10k
FLAG 64 192 plus
IOPIN 64 192 In
FLAG 64 352 minus
IOPIN 64 352 In
FLAG 768 288 out
IOPIN 768 288 Out
FLAG 96 288 0
FLAG 96 448 0
FLAG 384 352 0
FLAG 704 384 0
FLAG 288 144 0
FLAG 288 512 0
TEXT 64 624 Left 1 !.include ../../lib/claw_opamps.lib
TEXT 64 656 Left 1 !.tran 0 4m 0 5u
TEXT 64 688 Left 1 !.meas TRAN vout_2ms FIND V(out) AT=2m
TEXT 64 720 Left 1 !.meas TRAN vout_3ms FIND V(out) AT=3m
