Version 4
SHEET 1 1200 800
WIRE 64 192 384 192
WIRE 528 224 704 224
WIRE 528 224 560 224
WIRE 560 224 560 336
WIRE 560 336 384 336
WIRE 384 336 384 256
SYMBOL voltage 96 192 R0
SYMATTR InstName VIN
SYMATTR Value PULSE(0 1 0 1u 1u 5m 10m)
SYMBOL voltage 288 48 R0
SYMATTR InstName VCC
SYMATTR Value 5
SYMBOL voltage 288 336 R0
SYMATTR InstName VEE
SYMATTR Value -5
SYMBOL opamp2 384 160 R0
SYMATTR InstName XU1
SYMATTR Value CLAW_IDEAL_OPAMP
SYMBOL res 640 224 R90
SYMATTR InstName RL
SYMATTR Value 10k
FLAG 64 192 in
IOPIN 64 192 In
FLAG 704 224 out
IOPIN 704 224 Out
FLAG 96 288 0
FLAG 640 320 0
FLAG 288 144 0
FLAG 288 432 0
TEXT 64 544 Left 1 !.include ../../lib/claw_opamps.lib
TEXT 64 576 Left 1 !.tran 0 4m 0 5u
TEXT 64 608 Left 1 !.meas TRAN vout_2ms FIND V(out) AT=2m
TEXT 64 640 Left 1 !.meas TRAN tracking_error_max MAX abs(V(out)-V(in)) FROM=1m TO=4m
