Version 4
SHEET 1 1200 800
SYMBOL voltage 96 160 R0
SYMATTR InstName VIN
SYMATTR Value PULSE(0 1 0 1u 1u 5m 10m)
SYMBOL voltage 320 32 R0
SYMATTR InstName VCC
SYMATTR Value 5
SYMBOL voltage 320 288 R0
SYMATTR InstName VEE
SYMATTR Value -5
SYMBOL opamp2 384 144 R0
SYMATTR InstName XU1
SYMATTR Value CLAW_IDEAL_OPAMP
SYMBOL res 560 176 R90
SYMATTR InstName RL
SYMATTR Value 10k
FLAG 96 176 in
FLAG 96 256 0
FLAG 320 48 vcc
FLAG 320 128 0
FLAG 320 304 vee
FLAG 320 384 0
FLAG 384 176 in
FLAG 384 240 out
FLAG 432 144 vcc
FLAG 432 272 vee
FLAG 480 208 out
FLAG 560 176 out
FLAG 624 176 0
TEXT 64 320 Left 2 !.include ../../lib/claw_opamps.lib
TEXT 64 352 Left 2 !.tran 0 4m 0 5u
TEXT 64 384 Left 2 !.meas TRAN vout_2ms FIND V(out) AT=2m
TEXT 64 416 Left 2 !.meas TRAN tracking_error_max MAX abs(V(out)-V(in)) FROM=1m TO=4m
