Version 4
SHEET 1 1200 800
WIRE 64 224 224 224
WIRE 320 224 416 224
WIRE 352 224 352 320
WIRE 560 256 720 256
WIRE 560 256 592 256
WIRE 592 256 592 336
WIRE 592 336 416 336
WIRE 416 336 416 288
WIRE 288 48 464 48
WIRE 464 48 464 192
WIRE 288 368 464 368
WIRE 464 368 464 320
SYMBOL voltage 96 224 R0
SYMATTR InstName VIN
SYMATTR Value PULSE(0 1 0 1u 1u 500u 1m)
SYMBOL voltage 288 48 R0
SYMATTR InstName VCC
SYMATTR Value 5
SYMBOL voltage 288 368 R0
SYMATTR InstName VEE
SYMATTR Value -5
SYMBOL res 224 224 R0
SYMATTR InstName RIN
SYMATTR Value 10k
SYMBOL cap 352 224 R0
SYMATTR InstName CF
SYMATTR Value 47n
SYMBOL opamp2 416 192 R0
SYMATTR InstName XU1
SYMATTR Value CLAW_IDEAL_OPAMP
SYMBOL res 656 256 R90
SYMATTR InstName RL
SYMATTR Value 10k
FLAG 64 224 in
IOPIN 64 224 In
FLAG 720 256 out
IOPIN 720 256 Out
FLAG 96 320 0
FLAG 352 320 0
FLAG 656 352 0
FLAG 288 144 0
FLAG 288 464 0
TEXT 64 576 Left 1 !.include ../../lib/claw_opamps.lib
TEXT 64 608 Left 1 !.tran 0 4m 0 2u
TEXT 64 640 Left 1 !.meas TRAN vout_avg AVG V(out) FROM=2m TO=4m
TEXT 64 672 Left 1 !.meas TRAN vout_max MAX V(out) FROM=2m TO=4m
