Version 4
SHEET 1 1200 800
SYMBOL voltage 96 160 R0
SYMATTR InstName VIN
SYMATTR Value PULSE(0 1 0 1u 1u 500u 1m)
SYMBOL voltage 320 32 R0
SYMATTR InstName VCC
SYMATTR Value 5
SYMBOL voltage 320 352 R0
SYMATTR InstName VEE
SYMATTR Value -5
SYMBOL res 256 192 R90
SYMATTR InstName RIN
SYMATTR Value 10k
SYMBOL cap 368 224 R0
SYMATTR InstName CF
SYMATTR Value 47n
SYMBOL opamp2 480 176 R0
SYMATTR InstName XU1
SYMATTR Value CLAW_IDEAL_OPAMP
SYMBOL res 672 208 R90
SYMATTR InstName RL
SYMATTR Value 10k
FLAG 96 176 in
FLAG 96 256 0
FLAG 320 48 vcc
FLAG 320 128 0
FLAG 320 368 vee
FLAG 320 448 0
FLAG 256 192 in
FLAG 320 192 filt
FLAG 384 224 filt
FLAG 384 288 0
FLAG 480 208 filt
FLAG 480 272 out
FLAG 528 176 vcc
FLAG 528 304 vee
FLAG 576 240 out
FLAG 672 208 out
FLAG 736 208 0
TEXT 64 480 Left 2 !.include ../../lib/claw_opamps.lib
TEXT 64 512 Left 2 !.tran 0 4m 0 2u
TEXT 64 544 Left 2 !.meas TRAN vout_avg AVG V(out) FROM=2m TO=4m
TEXT 64 576 Left 2 !.meas TRAN vout_max MAX V(out) FROM=2m TO=4m
