Version 4
SHEET 1 1200 800
WIRE 64 256 224 256
WIRE 320 256 384 256
WIRE 480 256 560 256
WIRE 496 256 496 352
WIRE 320 256 320 128
WIRE 320 128 352 128
WIRE 448 128 768 128
WIRE 768 128 768 288
WIRE 704 288 864 288
WIRE 704 288 736 288
WIRE 736 288 736 384
WIRE 736 384 560 384
WIRE 560 384 560 320
WIRE 800 288 800 384
WIRE 752 64 608 64
WIRE 608 64 608 224
WIRE 752 432 608 432
WIRE 608 432 608 352
SYMBOL voltage 96 256 R0
SYMATTR InstName VIN
SYMATTR Value PULSE(0 0.5 0 20u 20u 500u 1m)
SYMBOL voltage 752 64 R0
SYMATTR InstName VCC
SYMATTR Value 5
SYMBOL voltage 752 432 R0
SYMATTR InstName VEE
SYMATTR Value -5
SYMBOL cap 224 256 R90
SYMATTR InstName C1
SYMATTR Value 10n
SYMBOL cap 384 256 R90
SYMATTR InstName C2
SYMATTR Value 10n
SYMBOL res 352 128 R0
SYMATTR InstName R1
SYMATTR Value 10k
SYMBOL res 496 256 R90
SYMATTR InstName R2
SYMATTR Value 10k
SYMBOL opamp2 560 224 R0
SYMATTR InstName XU1
SYMATTR Value CLAW_IDEAL_OPAMP
SYMBOL res 800 288 R90
SYMATTR InstName RL
SYMATTR Value 10k
FLAG 64 256 in
IOPIN 64 256 In
FLAG 864 288 out
IOPIN 864 288 Out
FLAG 96 352 0
FLAG 496 352 0
FLAG 800 384 0
FLAG 752 160 0
FLAG 752 528 0
TEXT 64 640 Left 1 !.include ../../lib/claw_opamps.lib
TEXT 64 672 Left 1 !.tran 0 5m 0 1u
TEXT 64 704 Left 1 !.meas TRAN vout_max MAX V(out) FROM=1m TO=5m
TEXT 64 736 Left 1 !.meas TRAN vout_min MIN V(out) FROM=1m TO=5m
TEXT 64 768 Left 1 !.meas TRAN vout_avg AVG V(out) FROM=1m TO=5m
