Version 4
SHEET 1 1200 800
WIRE 64 288 224 288
WIRE 320 288 448 288
WIRE 448 288 448 80
WIRE 448 80 496 80
WIRE 448 128 496 128
WIRE 592 80 592 256
WIRE 592 256 768 256
WIRE 704 256 704 352
WIRE 288 48 496 48
WIRE 496 48 496 192
WIRE 288 400 496 400
WIRE 496 400 496 320
SYMBOL voltage 96 288 R0
SYMATTR InstName VIN
SYMATTR Value PULSE(-0.1 0.1 0 10u 10u 1m 2m)
SYMBOL voltage 288 48 R0
SYMATTR InstName VCC
SYMATTR Value 5
SYMBOL voltage 288 400 R0
SYMATTR InstName VEE
SYMATTR Value -5
SYMBOL res 224 288 R0
SYMATTR InstName RIN
SYMATTR Value 100k
SYMBOL res 496 80 R0
SYMATTR InstName RLEAK
SYMATTR Value 1Meg
SYMBOL cap 496 128 R90
SYMATTR InstName CF
SYMATTR Value 10n
SYMBOL opamp2 448 192 R0
SYMATTR InstName XU1
SYMATTR Value CLAW_IDEAL_OPAMP
SYMBOL res 704 256 R90
SYMATTR InstName RL
SYMATTR Value 10k
FLAG 64 288 in
IOPIN 64 288 In
FLAG 768 256 out
IOPIN 768 256 Out
FLAG 96 384 0
FLAG 448 224 0
FLAG 704 352 0
FLAG 288 144 0
FLAG 288 496 0
TEXT 64 608 Left 1 !.include ../../lib/claw_opamps.lib
TEXT 64 640 Left 1 !.tran 0 10m 0 2u
TEXT 64 672 Left 1 !.meas TRAN vout_max MAX V(out) FROM=4m TO=10m
TEXT 64 704 Left 1 !.meas TRAN vout_min MIN V(out) FROM=4m TO=10m
TEXT 64 736 Left 1 !.meas TRAN vout_avg AVG V(out) FROM=4m TO=10m
