Version 4
SHEET 1 1200 800
WIRE 64 112 176 112
WIRE 272 112 416 112
WIRE 96 208 352 208
SYMBOL voltage 96 112 R0
SYMATTR InstName V1
SYMATTR Value PULSE(0 5 0 1n 1n 5m 10m)
SYMBOL res 176 112 R0
SYMATTR InstName R1
SYMATTR Value 1k
SYMBOL cap 352 112 R0
SYMATTR InstName C1
SYMATTR Value 1u
FLAG 64 112 in
IOPIN 64 112 In
FLAG 416 112 out
IOPIN 416 112 Out
FLAG 96 208 0
FLAG 352 208 0
TEXT 64 320 Left 1 !.tran 0 6m 0 10u
TEXT 64 352 Left 1 !.meas TRAN vout_max MAX V(out)
TEXT 64 384 Left 1 !.meas TRAN vout_ss FIND V(out) AT=5m
TEXT 64 416 Left 1 !.meas TRAN tau_rise WHEN V(out)=3.16 RISE=1
