Version 4
SHEET 1 1200 800
WIRE 96 112 160 112
WIRE 160 112 224 112
WIRE 288 112 384 112
WIRE 384 112 384 96
WIRE 384 160 384 208
WIRE 96 192 96 208
WIRE 96 208 384 208
SYMBOL voltage 96 96 R0
SYMATTR InstName V1
SYMATTR Value PULSE(0 5 0 1n 1n 5m 10m)
SYMBOL res 224 112 R90
SYMATTR InstName R1
SYMATTR Value 1k
SYMBOL cap 368 96 R0
SYMATTR InstName C1
SYMATTR Value 1u
FLAG 96 208 0
FLAG 160 112 in
FLAG 384 112 out
TEXT 64 288 Left 2 !.tran 0 6m 0 10u
TEXT 64 320 Left 2 !.meas TRAN vout_max MAX V(out)
TEXT 64 352 Left 2 !.meas TRAN vout_ss FIND V(out) AT=5m
TEXT 64 384 Left 2 !.meas TRAN tau_rise WHEN V(out)=3.16 RISE=1
