Version 4
SHEET 1 1200 800
WIRE 64 256 224 256
WIRE 320 256 384 256
WIRE 480 256 768 256
WIRE 560 256 560 352
WIRE 704 256 704 352
WIRE 96 352 704 352
SYMBOL voltage 96 256 R0
SYMATTR InstName VSTEP
SYMATTR Value PULSE(0 5 0 1u 1u 10m 20m)
SYMBOL res 224 256 R0
SYMATTR InstName RS
SYMATTR Value 47
SYMBOL ind 384 256 R0
SYMATTR InstName L1
SYMATTR Value 10m
SYMBOL cap 560 256 R0
SYMATTR InstName C1
SYMATTR Value 100n
SYMBOL res 704 256 R90
SYMATTR InstName RLOAD
SYMATTR Value 10k
FLAG 64 256 in
IOPIN 64 256 In
FLAG 768 256 out
IOPIN 768 256 Out
FLAG 96 352 0
FLAG 560 352 0
FLAG 704 352 0
TEXT 64 464 Left 1 !.tran 0 4m 0 1u
TEXT 64 496 Left 1 !.meas TRAN ring_peak MAX V(out) FROM=0 TO=2m
TEXT 64 528 Left 1 !.meas TRAN ring_min MIN V(out) FROM=0 TO=2m
TEXT 64 560 Left 1 !.meas TRAN vout_3ms FIND V(out) AT=3m
