Version 4
SHEET 1 1200 800
WIRE 64 160 224 160
WIRE 160 160 160 320
WIRE 160 320 224 320
WIRE 320 160 448 160
WIRE 320 320 448 320
WIRE 384 256 512 256
WIRE 384 416 512 416
WIRE 512 256 512 416
WIRE 96 256 96 288
WIRE 96 384 512 384
SYMBOL voltage 96 288 R0
SYMATTR InstName VLOW
SYMATTR Value SINE(0 1 250)
SYMBOL voltage 96 160 R0
SYMATTR InstName VHIGH
SYMATTR Value SINE(0 0.6 4k)
SYMBOL res 224 160 R0
SYMATTR InstName RLP
SYMATTR Value 3.3k
SYMBOL cap 384 160 R0
SYMATTR InstName CLP
SYMATTR Value 47n
SYMBOL cap 224 320 R90
SYMATTR InstName CHP
SYMATTR Value 47n
SYMBOL res 384 320 R90
SYMATTR InstName RHP
SYMATTR Value 3.3k
FLAG 64 160 in
IOPIN 64 160 In
FLAG 448 160 low
IOPIN 448 160 Out
FLAG 448 320 high
IOPIN 448 320 Out
FLAG 96 384 0
FLAG 512 384 0
FLAG 384 416 0
TEXT 64 528 Left 1 !.options plotwinsize=0
TEXT 64 560 Left 1 !.tran 0 20m 0 5u
TEXT 64 592 Left 1 !.meas TRAN vin_rms RMS V(in) FROM=4m TO=20m
TEXT 64 624 Left 1 !.meas TRAN low_rms RMS V(low) FROM=4m TO=20m
TEXT 64 656 Left 1 !.meas TRAN high_rms RMS V(high) FROM=4m TO=20m
