Version 4
SHEET 1 1200 800
SYMBOL voltage 96 160 R0
SYMATTR InstName VIN
SYMATTR Value PULSE(0 1 0 1u 1u 5m 10m)
SYMBOL voltage 320 32 R0
SYMATTR InstName VCC
SYMATTR Value 5
SYMBOL voltage 320 320 R0
SYMATTR InstName VEE
SYMATTR Value -5
SYMBOL opamp2 416 160 R0
SYMATTR InstName XU1
SYMATTR Value CLAW_IDEAL_OPAMP
SYMBOL res 512 288 R90
SYMATTR InstName RG
SYMATTR Value 10k
SYMBOL res 544 128 R90
SYMATTR InstName RF
SYMATTR Value 20k
SYMBOL res 672 192 R90
SYMATTR InstName RL
SYMATTR Value 10k
FLAG 96 176 in
FLAG 96 256 0
FLAG 320 48 vcc
FLAG 320 128 0
FLAG 320 336 vee
FLAG 320 416 0
FLAG 416 192 in
FLAG 416 256 fb
FLAG 464 160 vcc
FLAG 464 288 vee
FLAG 512 224 out
FLAG 512 288 fb
FLAG 576 288 0
FLAG 544 128 out
FLAG 608 128 fb
FLAG 672 192 out
FLAG 736 192 0
TEXT 64 384 Left 2 !.include ../../lib/claw_opamps.lib
TEXT 64 416 Left 2 !.tran 0 4m 0 5u
TEXT 64 448 Left 2 !.meas TRAN vout_2ms FIND V(out) AT=2m
TEXT 64 480 Left 2 !.meas TRAN gain_2ms PARAM vout_2ms/1
