Version 4
SHEET 1 1200 800
SYMBOL voltage 96 160 R0
SYMATTR InstName VIN
SYMATTR Value PULSE(0 1 0 1u 1u 5m 10m)
SYMBOL voltage 320 32 R0
SYMATTR InstName VCC
SYMATTR Value 5
SYMBOL voltage 320 320 R0
SYMATTR InstName VEE
SYMATTR Value -5
SYMBOL res 256 192 R90
SYMATTR InstName RIN
SYMATTR Value 10k
SYMBOL res 544 128 R90
SYMATTR InstName RF
SYMATTR Value 20k
SYMBOL opamp2 416 176 R0
SYMATTR InstName XU1
SYMATTR Value CLAW_IDEAL_OPAMP
SYMBOL res 672 208 R90
SYMATTR InstName RL
SYMATTR Value 10k
FLAG 96 176 in
FLAG 96 256 0
FLAG 320 48 vcc
FLAG 320 128 0
FLAG 320 336 vee
FLAG 320 416 0
FLAG 256 192 in
FLAG 320 192 sum
FLAG 544 128 out
FLAG 608 128 sum
FLAG 416 208 0
FLAG 416 272 sum
FLAG 464 176 vcc
FLAG 464 304 vee
FLAG 512 240 out
FLAG 672 208 out
FLAG 736 208 0
TEXT 64 384 Left 2 !.include ../../lib/claw_opamps.lib
TEXT 64 416 Left 2 !.tran 0 4m 0 5u
TEXT 64 448 Left 2 !.meas TRAN vout_2ms FIND V(out) AT=2m
TEXT 64 480 Left 2 !.meas TRAN gain_2ms PARAM vout_2ms/1
