Version 4
SHEET 1 1200 800
WIRE 64 288 224 288
WIRE 320 288 352 288
WIRE 448 288 544 288
WIRE 544 288 544 80
WIRE 544 80 592 80
WIRE 544 128 592 128
WIRE 688 80 688 256
WIRE 688 256 848 256
WIRE 784 256 784 352
WIRE 352 48 592 48
WIRE 592 48 592 192
WIRE 352 400 592 400
WIRE 592 400 592 320
SYMBOL voltage 96 288 R0
SYMATTR InstName VIN
SYMATTR Value PULSE(-0.05 0.05 0 500u 500u 2m 5m)
SYMBOL voltage 352 48 R0
SYMATTR InstName VCC
SYMATTR Value 5
SYMBOL voltage 352 400 R0
SYMATTR InstName VEE
SYMATTR Value -5
SYMBOL cap 224 288 R90
SYMATTR InstName CIN
SYMATTR Value 100n
SYMBOL res 352 288 R0
SYMATTR InstName RIN
SYMATTR Value 1k
SYMBOL res 592 128 R0
SYMATTR InstName RF
SYMATTR Value 100k
SYMBOL cap 592 80 R90
SYMATTR InstName CF
SYMATTR Value 1n
SYMBOL opamp2 544 192 R0
SYMATTR InstName XU1
SYMATTR Value CLAW_IDEAL_OPAMP
SYMBOL res 784 256 R90
SYMATTR InstName RL
SYMATTR Value 10k
FLAG 64 288 in
IOPIN 64 288 In
FLAG 848 256 out
IOPIN 848 256 Out
FLAG 96 384 0
FLAG 544 224 0
FLAG 784 352 0
FLAG 352 144 0
FLAG 352 496 0
TEXT 64 608 Left 1 !.include ../../lib/claw_opamps.lib
TEXT 64 640 Left 1 !.tran 0 15m 0 5u
TEXT 64 672 Left 1 !.meas TRAN vout_max MAX V(out) FROM=5m TO=15m
TEXT 64 704 Left 1 !.meas TRAN vout_min MIN V(out) FROM=5m TO=15m
TEXT 64 736 Left 1 !.meas TRAN vout_rms RMS V(out) FROM=5m TO=15m
